Circuit: * C:\Users\shobayashi\Documents\elec\commande_IR\filtre_pass_band_test.asc

Direct Newton iteration for .op point succeeded.

Date: Wed Apr  8 10:47:34 2020
Total elapsed time: 0.078 seconds.

tnom = 27
temp = 27
method = trap
totiter = 24
traniter = 0
tranpoints = 0
accept = 0
rejected = 0
matrix size = 31
fillins = 32
solver = Normal
Matrix Compiler1:     163 opcodes
Matrix Compiler2: 3.02 KB object code size
