Circuit: * C:\Users\shobayashi\Documents\elec\recepteur_IU_conv.asc

Direct Newton iteration for .op point succeeded.
Changing Tseed to 1e-08
Changing Tseed to 1e-10
Changing Tseed to 1e-07
Changing Tseed to 1e-11
Changing Tseed to 1e-06
Changing Tseed to 1e-12

Date: Tue Apr  7 19:14:25 2020
Total elapsed time: 17.472 seconds.

tnom = 27
temp = 27
method = modified trap
totiter = 462389
traniter = 462352
tranpoints = 118780
accept = 92394
rejected = 26380
matrix size = 25
fillins = 49
solver = Normal
Matrix Compiler1: 3.45 KB object code size  0.8/0.4/[0.4]
Matrix Compiler2: off  [0.2]/0.5/0.5

