Circuit: * C:\Users\shobayashi\Documents\elec\commande_IR\Schema_blocs.asc

Direct Newton iteration for .op point succeeded.

Date: Tue Apr  7 20:27:15 2020
Total elapsed time: 0.061 seconds.

tnom = 27
temp = 27
method = trap
totiter = 20
traniter = 0
tranpoints = 0
accept = 0
rejected = 0
matrix size = 31
fillins = 32
solver = Normal
Matrix Compiler1:     163 opcodes
Matrix Compiler2: 3.02 KB object code size
