Circuit: * C:\Users\shobayashi\Documents\elec\commande_IR\Schema_blocs.asc

WARNING: Less than two connections to node X1:N004.  This node is used by V:X1:1.
WARNING: Less than two connections to node X1:NC_01.  This node is used by V:X1:2.
Direct Newton iteration for .op point succeeded.
Ignoring empty pin current: Ix(x1:gnd)
Ignoring empty pin current: Ix(x1:gnd)

Date: Wed Apr  8 10:24:16 2020
Total elapsed time: 0.124 seconds.

tnom = 27
temp = 27
method = trap
totiter = 25
traniter = 0
tranpoints = 0
accept = 0
rejected = 0
matrix size = 33
fillins = 32
solver = Normal
Matrix Compiler1:     162 opcodes
Matrix Compiler2: 2.98 KB object code size
